************************************************************************
* auCdl Netlist:
* 
* Library Name:  SINT_mkm18
* Top Cell Name: PLL600V3_m18
* View Name:     schematic
* Netlisted on:  Sep 15 13:13:33 2023
************************************************************************

*.BIPOLAR
*.RESI = 2000 
*.RESVAL
*.CAPVAL
*.DIOPERI
*.DIOAREA
*.EQUATION
*.SCALE METER
*.MEGA
.PARAM



************************************************************************
* Library Name: SERIAL_LINK_mkm18
* Cell Name:    ENHSP_PLL600V3_m18
* View Name:    cmos_sch
************************************************************************

.SUBCKT ENHSP_PLL600V3_m18 A B NEG POS Z
*.PININFO A:I B:I NEG:I POS:I Z:O
MMP4 Z A net18 POS PHS W=4.40u L=0.18u M=1
MMP5 net18 B POS POS PHS W=4.40u L=0.18u M=1
MMP3 Z net15 POS POS PHS W=2.50u L=0.18u M=1
MMP2 net15 A POS POS PHS W=0.62u L=0.18u M=1
MMP1 net15 B POS POS PHS W=0.62u L=0.18u M=1
MMN3 net3 net15 NEG NEG NHS W=2.12u L=0.18u M=1
MMN5 Z B net3 NEG NHS W=2.12u L=0.18u M=1
MMN4 Z A net3 NEG NHS W=2.12u L=0.18u M=1
MMN1 net12 B NEG NEG NHS W=0.52u L=0.18u M=1
MMN2 net15 A net12 NEG NHS W=0.52u L=0.18u M=1
DD22 B POS DP 1.02e-13
DD24 NEG A DN 1.02e-13
.ENDS

************************************************************************
* Library Name: SERIAL_LINK_mkm18
* Cell Name:    ND2HSP_PLL600V3_m18
* View Name:    cmos_sch
************************************************************************

.SUBCKT ND2HSP_PLL600V3_m18 A B NEG POS Z
*.PININFO A:I B:I NEG:I POS:I Z:O
MMP2 Z B POS POS PHS W=2.50u L=0.18u M=1
MMP1 Z A POS POS PHS W=2.50u L=0.18u M=1
MMN2 net3 B NEG NEG NHS W=1.06u L=0.18u M=1
MMN1 Z A net3 NEG NHS W=1.06u L=0.18u M=1
MM23 net14 B NEG NEG NHS W=1.06u L=0.18u M=1
MM22 Z A net14 NEG NHS W=1.06u L=0.18u M=1
DD38 NEG A DN 1.02e-13
DD30 B POS DP 1.02e-13
.ENDS

************************************************************************
* Library Name: SERIAL_LINK_mkm18
* Cell Name:    NR2HSP_PLL600V3_m18
* View Name:    cmos_sch
************************************************************************

.SUBCKT NR2HSP_PLL600V3_m18 A B NEG POS Z
*.PININFO A:I B:I NEG:I POS:I Z:O
MMN1 Z A NEG NEG NHS W=1.42u L=0.18u M=1
MMN2 Z B NEG NEG NHS W=1.42u L=0.18u M=1
MMP1 Z A net3 POS PHS W=2.20u L=0.18u M=1
MMP2 net3 B POS POS PHS W=2.20u L=0.18u M=1
MM20 net17 B POS POS PHS W=2.20u L=0.18u M=1
MM21 Z A net17 POS PHS W=2.20u L=0.18u M=1
DD32 NEG A DN 1.02e-13
DD31 NEG B DN 1.02e-13
.ENDS

************************************************************************
* Library Name: SERIAL_LINK_mkm18
* Cell Name:    IVHSP_PLL600V3_m18
* View Name:    cmos_sch
************************************************************************

.SUBCKT IVHSP_PLL600V3_m18 A NEG POS Z
*.PININFO A:I NEG:I POS:I Z:O
MMN1 Z A NEG NEG NHS W=1.42u L=0.18u M=1
MMP1 Z A POS POS PHS W=2.50u L=0.18u M=1
DD7 NEG A DN 1.02e-13
.ENDS

************************************************************************
* Library Name: SINT_mkm18
* Cell Name:    scpllinvsl_PLL600V3_m18
* View Name:    schematic
************************************************************************

.SUBCKT scpllinvsl_PLL600V3_m18 A F NEG POS
*.PININFO A:I NEG:I POS:I F:O
MM1 F A NEG NEG NHS W=1.04e-6 L=1.14e-6 M=1
MM0 F A POS POS PHS W=1.04e-6 L=1.14e-6 M=1
DD7 NEG A DN 1.02e-13
.ENDS

************************************************************************
* Library Name: SINT_mkm18
* Cell Name:    scpllochk_V2_PLL600V3_m18
* View Name:    schematic
************************************************************************

.SUBCKT scpllochk_V2_PLL600V3_m18 FILTER FRIN IBIAS NEG PD POS TM1
*.PININFO FRIN:I IBIAS:I NEG:I PD:I POS:I TM1:I FILTER:B
XI17 net24 net1 NEG POS net44 / ENHSP_PLL600V3_m18
MM7 net34 net34 POS POS PHS W=1e-6 L=4e-6 M=1
MM4 net93 FILTER POS POS PHS W=1.66e-6 L=0.18e-6 M=1
MM9<0> POS net46 POS POS PHS W=1.6e-6 L=2e-6 M=1
MM9<1> POS net46 POS POS PHS W=1.6e-6 L=2e-6 M=1
MM9<2> POS net46 POS POS PHS W=1.6e-6 L=2e-6 M=1
MM9<3> POS net46 POS POS PHS W=1.6e-6 L=2e-6 M=1
MM9<4> POS net46 POS POS PHS W=1.6e-6 L=2e-6 M=1
MM9<5> POS net46 POS POS PHS W=1.6e-6 L=2e-6 M=1
MM9<6> POS net46 POS POS PHS W=1.6e-6 L=2e-6 M=1
MM9<7> POS net46 POS POS PHS W=1.6e-6 L=2e-6 M=1
MM5 FILTER net73 POS POS PHS W=1.66e-6 L=0.18e-6 M=1
MM8 net46 net34 POS POS PHS W=1e-6 L=4e-6 M=1
MM0 IBIAS IBIAS NEG NEG NHS W=1e-6 L=4e-6 M=1
MM3 net46 net44 NEG NEG NHS W=1.66e-6 L=0.18e-6 M=1
MM1 net93 IBIAS NEG NEG NHS W=1e-6 L=1e-6 M=1
MM6 net46 FILTER NEG NEG NHS W=0.52e-6 L=0.18e-6 M=1
MM2 net34 IBIAS NEG NEG NHS W=1e-6 L=4e-6 M=1
MM10<0> NEG net46 NEG NEG NHS W=1.6e-6 L=2e-6 M=1
MM10<1> NEG net46 NEG NEG NHS W=1.6e-6 L=2e-6 M=1
MM10<2> NEG net46 NEG NEG NHS W=1.6e-6 L=2e-6 M=1
MM10<3> NEG net46 NEG NEG NHS W=1.6e-6 L=2e-6 M=1
MM10<4> NEG net46 NEG NEG NHS W=1.6e-6 L=2e-6 M=1
MM10<5> NEG net46 NEG NEG NHS W=1.6e-6 L=2e-6 M=1
MM10<6> NEG net46 NEG NEG NHS W=1.6e-6 L=2e-6 M=1
MM10<7> NEG net46 NEG NEG NHS W=1.6e-6 L=2e-6 M=1
XI13 net93 net66 NEG POS net2 / ND2HSP_PLL600V3_m18
XI16 net36 net46 NEG POS net37 / NR2HSP_PLL600V3_m18
XI12 PD TM1 NEG POS net66 / NR2HSP_PLL600V3_m18
XI15 net2 net37 NEG POS net36 / NR2HSP_PLL600V3_m18
XI14 net36 NEG POS net73 / IVHSP_PLL600V3_m18
XI8 net4 NEG POS net24 / IVHSP_PLL600V3_m18
XI0 FRIN NEG POS net1 / IVHSP_PLL600V3_m18
XI18 net3 net4 NEG POS / scpllinvsl_PLL600V3_m18
XI19 net1 net3 NEG POS / scpllinvsl_PLL600V3_m18
.ENDS

************************************************************************
* Library Name: SERIAL_LINK_mkm18
* Cell Name:    TIEHI_PLL600V3_m18
* View Name:    schematic
************************************************************************

.SUBCKT TIEHI_PLL600V3_m18 NEG POS Y
*.PININFO NEG:I POS:I Y:O
MM0 net09 net09 NEG NEG NHS W=0.3e-6 L=0.18e-6 M=1
MM1 Y net09 POS POS PHS W=1e-6 L=0.18e-6 M=1
.ENDS

************************************************************************
* Library Name: SINT_mkm18
* Cell Name:    FD1HSP_dummy_PLL600V3_m18
* View Name:    cmos_sch
************************************************************************

.SUBCKT FD1HSP_dummy_PLL600V3_m18 CP D NEG POS Q QN
*.PININFO CP:I D:I NEG:I POS:I Q:O QN:O
XI28 NEG POS net106 / TIEHI_PLL600V3_m18
MMN16 Q M4 NEG NEG NHS W=1.42u L=0.18u M=1
MMN11 M4 S1 NEG NEG NHS W=0.80u L=0.18u M=1
MMN103 M1 CN DIN NEG NHS W=0.28u L=0.18u M=1
MMN71 M5N net106 NEG NEG NHS W=0.28u L=0.18u M=1
MMN74 S1 CN M5N NEG NHS W=0.28u L=0.18u M=1
MMN78 M1 CPI M3N NEG NHS W=0.28u L=0.18u M=1
MMN85 M3N M2 NEG NEG NHS W=0.28u L=0.18u M=1
MMN89 M2 M1 NEG NEG NHS W=0.28u L=0.18u M=1
MMN92 S1 CPI MIN NEG NHS W=0.64u L=0.18u M=1
MMN106 DIN D NEG NEG NHS W=0.28u L=0.18u M=1
MMN123 CPI CN NEG NEG NHS W=0.36u L=0.18u M=1
MM0 MIN M1 NEG NEG NHS W=0.64u L=0.18u M=1
MM24 QN S1 NEG NEG NHS W=1.42u L=0.18u M=1
MMN119 CN CP NEG NEG NHS W=0.70u L=0.18u M=1
MMP16 Q M4 POS POS PHS W=2.50u L=0.18u M=1
MMP11 M4 S1 POS POS PHS W=1.10u L=0.18u M=1
MMP127 S1 CN MIP POS PHS W=1.10u L=0.18u M=1
MMP112 M1 CPI DIP POS PHS W=0.56u L=0.18u M=1
MMP72 M5P net106 POS POS PHS W=0.28u L=0.18u M=1
MMP73 S1 CPI M5P POS PHS W=0.28u L=0.18u M=1
MMP76 M1 CN M3P POS PHS W=0.28u L=0.18u M=1
MMP79 M2 M1 POS POS PHS W=0.34u L=0.18u M=1
MMP120 CN CP POS POS PHS W=0.70u L=0.18u M=1
MMP124 CPI CN POS POS PHS W=0.70u L=0.18u M=1
MMP1 MIP M1 POS POS PHS W=1.10u L=0.18u M=1
MM5 QN S1 POS POS PHS W=2.50u L=0.18u M=1
MMP87 M3P M2 POS POS PHS W=0.28u L=0.18u M=1
MMP102 DIP D POS POS PHS W=0.56u L=0.18u M=1
DD16 D POS DP 1.02e-13
DD0 CP POS DP 1.02e-13
.ENDS

************************************************************************
* Library Name: SINT_mkm18
* Cell Name:    scplldivb_PLL600V3_m18
* View Name:    schematic
************************************************************************

.SUBCKT scplldivb_PLL600V3_m18 CLK CLKB D DB L NEG POS Q QB T
*.PININFO CLK:I CLKB:I D:I DB:I L:I NEG:I POS:I T:I Q:O QB:O
MM4 QB Q POS POS PHS W=1.62e-6 L=0.18e-6 M=1
MM30 net124 net121 POS POS PHS W=1.62e-6 L=0.18e-6 M=1
MM15 net121 net124 POS POS PHS W=1.62e-6 L=0.18e-6 M=1
MM34 Q QB POS POS PHS W=1.62e-6 L=0.18e-6 M=1
MM13 net135 Q net117 NEG NHS W=1.6e-6 L=0.18e-6 M=1
MM41 net116 DB NEG NEG NHS W=1.6e-6 L=0.18e-6 M=1
MM5 net121 net124 NEG NEG NHS W=0.52e-6 L=0.18e-6 M=1
MM48 Q CLKB net61 NEG NHS W=1.6e-6 L=0.18e-6 M=1
MM43 net110 T NEG NEG NHS W=1.6e-6 L=0.18e-6 M=1
MM19 net111 L net134 NEG NHS W=1.6e-6 L=0.18e-6 M=1
MM14 net135 Q net110 NEG NHS W=1.6e-6 L=0.18e-6 M=1
MM40 net114 DB NEG NEG NHS W=1.6e-6 L=0.18e-6 M=1
MM6 QB Q NEG NEG NHS W=0.52e-6 L=0.18e-6 M=1
MM12 net135 L net116 NEG NHS W=1.6e-6 L=0.18e-6 M=1
MM45 QB CLKB net102 NEG NHS W=1.6e-6 L=0.18e-6 M=1
MM49 Q CLKB net147 NEG NHS W=1.6e-6 L=0.18e-6 M=1
MM51 net61 net121 NEG NEG NHS W=1.6e-6 L=0.18e-6 M=1
MM38 net105 T NEG NEG NHS W=1.6e-6 L=0.18e-6 M=1
MM31 net134 D NEG NEG NHS W=1.6e-6 L=0.18e-6 M=1
MM39 net101 T NEG NEG NHS W=1.6e-6 L=0.18e-6 M=1
MM21 net111 QB net105 NEG NHS W=1.6e-6 L=0.18e-6 M=1
MM28 Q QB NEG NEG NHS W=0.52e-6 L=0.18e-6 M=1
MM32 net108 D NEG NEG NHS W=1.6e-6 L=0.18e-6 M=1
MM20 net111 L net108 NEG NHS W=1.6e-6 L=0.18e-6 M=1
MM22 net111 QB net101 NEG NHS W=1.6e-6 L=0.18e-6 M=1
MM18<0> net124 CLK net135 NEG NHS W=1.6e-6 L=0.18e-6 M=1
MM18<1> net124 CLK net135 NEG NHS W=1.6e-6 L=0.18e-6 M=1
MM11 net135 L net114 NEG NHS W=1.6e-6 L=0.18e-6 M=1
MM37<1> net121 CLK net111 NEG NHS W=1.6e-6 L=0.18e-6 M=1
MM37<0> net121 CLK net111 NEG NHS W=1.6e-6 L=0.18e-6 M=1
MM50 net147 net121 NEG NEG NHS W=1.6e-6 L=0.18e-6 M=1
MM46 net102 net124 NEG NEG NHS W=1.6e-6 L=0.18e-6 M=1
MM27 net124 net121 NEG NEG NHS W=0.52e-6 L=0.18e-6 M=1
MM44 QB CLKB net149 NEG NHS W=1.6e-6 L=0.18e-6 M=1
MM47 net149 net124 NEG NEG NHS W=1.6e-6 L=0.18e-6 M=1
MM42 net117 T NEG NEG NHS W=1.6e-6 L=0.18e-6 M=1
.ENDS

************************************************************************
* Library Name: SERIAL_LINK_mkm18
* Cell Name:    FD4HSP_PLL600V3_m18
* View Name:    cmos_sch
************************************************************************

.SUBCKT FD4HSP_PLL600V3_m18 CP D NEG POS Q QN SD
*.PININFO CP:I D:I NEG:I POS:I SD:I Q:O QN:O
MMN16 Q M4 NEG NEG NHS W=1.42u L=0.18u M=1
MMN11 M4 S1 NEG NEG NHS W=0.80u L=0.18u M=1
MMN103 M1 CN DIN NEG NHS W=0.28u L=0.18u M=1
MMN71 M5N M4 net110 NEG NHS W=0.28u L=0.18u M=1
MMN74 S1 CN M5N NEG NHS W=0.28u L=0.18u M=1
MMN78 M1 CPI M3N NEG NHS W=0.28u L=0.18u M=1
MMN85 M3N M2 NEG NEG NHS W=0.28u L=0.18u M=1
MMN89 M2 M1 net199 NEG NHS W=0.28u L=0.18u M=1
MMN0 MIN M1 MIS NEG NHS W=0.64u L=0.18u M=1
MMN106 DIN D NEG NEG NHS W=0.28u L=0.18u M=1
MMN119 CN CP NEG NEG NHS W=0.70u L=0.18u M=1
MMN123 CPI CN NEG NEG NHS W=0.36u L=0.18u M=1
MMN92 S1 CPI MIN NEG NHS W=0.64u L=0.18u M=1
MMN183 MIS SD NEG NEG NHS W=0.64u L=0.18u M=1
MM7 net110 SD NEG NEG NHS W=0.28u L=0.18u M=1
MM24 QN S1 NEG NEG NHS W=1.42u L=0.18u M=1
MMN83 net199 SD NEG NEG NHS W=0.28u L=0.18u M=1
MMP16 Q M4 POS POS PHS W=2.50u L=0.18u M=1
MMP11 M4 S1 POS POS PHS W=1.10u L=0.18u M=1
MMP190 S1 SD POS POS PHS W=1.10u L=0.18u M=1
MMP112 M1 CPI DIP POS PHS W=0.56u L=0.18u M=1
MMP72 M5P M4 POS POS PHS W=0.28u L=0.18u M=1
MMP73 S1 CPI M5P POS PHS W=0.28u L=0.18u M=1
MMP76 M1 CN M3P POS PHS W=0.28u L=0.18u M=1
MMP79 M2 M1 POS POS PHS W=0.34u L=0.18u M=1
MMP120 CN CP POS POS PHS W=0.70u L=0.18u M=1
MMP124 CPI CN POS POS PHS W=0.70u L=0.18u M=1
MM5 QN S1 POS POS PHS W=2.50u L=0.18u M=1
MMP127 S1 CN MIP POS PHS W=1.10u L=0.18u M=1
MMP1 MIP M1 POS POS PHS W=1.10u L=0.18u M=1
MMP87 M3P M2 POS POS PHS W=0.28u L=0.18u M=1
MMP102 DIP D POS POS PHS W=0.56u L=0.18u M=1
MMP90 M2 SD POS POS PHS W=0.34u L=0.18u M=1
DD16 D POS DP 1.02e-13
DD0 CP POS DP 1.02e-13
DD1 SD POS DP 1.02e-13
.ENDS

************************************************************************
* Library Name: SERIAL_LINK_mkm18
* Cell Name:    IVHSX4_PLL600V3_m18
* View Name:    cmos_sch
************************************************************************

.SUBCKT IVHSX4_PLL600V3_m18 A NEG POS Z
*.PININFO A:I NEG:I POS:I Z:O
MMN1 Z A NEG NEG NHS W=2.84u L=0.18u M=1
MMP1 Z A POS POS PHS W=5.06u L=0.18u M=1
DD7 NEG A DN 1.02e-13
.ENDS

************************************************************************
* Library Name: SERIAL_LINK_mkm18
* Cell Name:    ND4HSP_PLL600V3_m18
* View Name:    cmos_sch
************************************************************************

.SUBCKT ND4HSP_PLL600V3_m18 A B C D NEG POS Z
*.PININFO A:I B:I C:I D:I NEG:I POS:I Z:O
MMN4 net3 D NEG NEG NHS W=1.78u L=0.18u M=1
MMN3 net6 C net3 NEG NHS W=1.78u L=0.18u M=1
MMN2 net9 B net6 NEG NHS W=1.78u L=0.18u M=1
MMN1 Z A net9 NEG NHS W=1.78u L=0.18u M=1
MM22 net22 D NEG NEG NHS W=1.78u L=0.18u M=1
MM21 net25 C net22 NEG NHS W=1.78u L=0.18u M=1
MM20 Z A net31 NEG NHS W=1.78u L=0.18u M=1
MM19 net31 B net25 NEG NHS W=1.78u L=0.18u M=1
MMP1 Z A POS POS PHS W=2.50u L=0.18u M=1
MMP2 Z B POS POS PHS W=2.52u L=0.18u M=1
MMP3 Z C POS POS PHS W=2.52u L=0.18u M=1
MMP4 Z D POS POS PHS W=2.52u L=0.18u M=1
DD38 A POS DP 1.02e-13
DD34 C POS DP 1.02e-13
DD30 B POS DP 1.02e-13
DD24 NEG D DN 1.02e-13
.ENDS

************************************************************************
* Library Name: SERIAL_LINK_mkm18
* Cell Name:    ND3HSP_PLL600V3_m18
* View Name:    cmos_sch
************************************************************************

.SUBCKT ND3HSP_PLL600V3_m18 A B C NEG POS Z
*.PININFO A:I B:I C:I NEG:I POS:I Z:O
MMN3 net3 C NEG NEG NHS W=1.42u L=0.18u M=1
MMN2 net6 B net3 NEG NHS W=1.42u L=0.18u M=1
MMN1 Z A net6 NEG NHS W=1.42u L=0.18u M=1
MM17 net18 C NEG NEG NHS W=1.42u L=0.18u M=1
MM16 net21 B net18 NEG NHS W=1.42u L=0.18u M=1
MM15 Z A net21 NEG NHS W=1.42u L=0.18u M=1
MMP3 Z C POS POS PHS W=2.50u L=0.18u M=1
MMP2 Z B POS POS PHS W=2.52u L=0.18u M=1
MMP1 Z A POS POS PHS W=2.52u L=0.18u M=1
DD24 NEG C DN 1.02e-13
DD25 B POS DP 1.02e-13
DD21 A POS DP 1.02e-13
.ENDS

************************************************************************
* Library Name: SINT_mkm18
* Cell Name:    scplldivid_PLL600V3_m18
* View Name:    schematic
************************************************************************

.SUBCKT scplldivid_PLL600V3_m18 CLKINB D0 D1 D2 D3 D4 DIVOUT DIVOUT2 FORCE32 
+ NEG POS RESET SYNCEN
*.PININFO CLKINB:I D0:I D1:I D2:I D3:I D4:I FORCE32:I NEG:I POS:I RESET:I 
*.PININFO SYNCEN:I DIVOUT:O DIVOUT2:O
XI65 net173 net190 NEG POS DIVOUT net233 / FD1HSP_dummy_PLL600V3_m18
XXI58 CLK CLKB net142 net359 LOAD NEG POS Q4 net406 net336 / 
+ scplldivb_PLL600V3_m18
XI57 CLK CLKB net303 net357 LOAD NEG POS Q2 net394 net337 / 
+ scplldivb_PLL600V3_m18
XI58 CLK CLKB net143 net355 LOAD NEG POS Q1 net382 net378 / 
+ scplldivb_PLL600V3_m18
XI56 CLK CLKB net149 net361 LOAD NEG POS Q3 net418 net414 / 
+ scplldivb_PLL600V3_m18
XI59 CLK CLKB net347 net353 LOAD NEG POS Q0 net370 net223 / 
+ scplldivb_PLL600V3_m18
MM5<0> net278 net273 NEG NEG NHS W=1.56e-6 L=0.18e-6 M=1
MM5<1> net278 net273 NEG NEG NHS W=1.56e-6 L=0.18e-6 M=1
MM5<2> net278 net273 NEG NEG NHS W=1.56e-6 L=0.18e-6 M=1
MM5<3> net278 net273 NEG NEG NHS W=1.56e-6 L=0.18e-6 M=1
MM5<4> net278 net273 NEG NEG NHS W=1.56e-6 L=0.18e-6 M=1
MM6<0> CLKB net273 NEG NEG NHS W=1.56e-6 L=0.18e-6 M=1
MM6<1> CLKB net273 NEG NEG NHS W=1.56e-6 L=0.18e-6 M=1
MM6<2> CLKB net273 NEG NEG NHS W=1.56e-6 L=0.18e-6 M=1
MM6<3> CLKB net273 NEG NEG NHS W=1.56e-6 L=0.18e-6 M=1
MM6<4> CLKB net273 NEG NEG NHS W=1.56e-6 L=0.18e-6 M=1
MM7<0> net273 net173 NEG NEG NHS W=1.56e-6 L=0.18e-6 M=1
MM7<1> net273 net173 NEG NEG NHS W=1.56e-6 L=0.18e-6 M=1
MM7<2> net273 net173 NEG NEG NHS W=1.56e-6 L=0.18e-6 M=1
MM7<3> net273 net173 NEG NEG NHS W=1.56e-6 L=0.18e-6 M=1
MM4<0> CLK net278 NEG NEG NHS W=1.56e-6 L=0.18e-6 M=1
MM4<1> CLK net278 NEG NEG NHS W=1.56e-6 L=0.18e-6 M=1
MM4<2> CLK net278 NEG NEG NHS W=1.56e-6 L=0.18e-6 M=1
MM0<0> CLK net278 POS POS PHS W=2.08e-6 L=0.18e-6 M=1
MM0<1> CLK net278 POS POS PHS W=2.08e-6 L=0.18e-6 M=1
MM0<2> CLK net278 POS POS PHS W=2.08e-6 L=0.18e-6 M=1
MM0<3> CLK net278 POS POS PHS W=2.08e-6 L=0.18e-6 M=1
MM0<4> CLK net278 POS POS PHS W=2.08e-6 L=0.18e-6 M=1
MM0<5> CLK net278 POS POS PHS W=2.08e-6 L=0.18e-6 M=1
MM0<6> CLK net278 POS POS PHS W=2.08e-6 L=0.18e-6 M=1
MM0<7> CLK net278 POS POS PHS W=2.08e-6 L=0.18e-6 M=1
MM0<8> CLK net278 POS POS PHS W=2.08e-6 L=0.18e-6 M=1
MM0<9> CLK net278 POS POS PHS W=2.08e-6 L=0.18e-6 M=1
MM2<0> CLKB net273 POS POS PHS W=2.08e-6 L=0.18e-6 M=1
MM2<1> CLKB net273 POS POS PHS W=2.08e-6 L=0.18e-6 M=1
MM2<2> CLKB net273 POS POS PHS W=2.08e-6 L=0.18e-6 M=1
MM2<3> CLKB net273 POS POS PHS W=2.08e-6 L=0.18e-6 M=1
MM2<4> CLKB net273 POS POS PHS W=2.08e-6 L=0.18e-6 M=1
MM2<5> CLKB net273 POS POS PHS W=2.08e-6 L=0.18e-6 M=1
MM2<6> CLKB net273 POS POS PHS W=2.08e-6 L=0.18e-6 M=1
MM2<7> CLKB net273 POS POS PHS W=2.08e-6 L=0.18e-6 M=1
MM2<8> CLKB net273 POS POS PHS W=2.08e-6 L=0.18e-6 M=1
MM2<9> CLKB net273 POS POS PHS W=2.08e-6 L=0.18e-6 M=1
MM3<0> net273 net173 POS POS PHS W=2.08e-6 L=0.18e-6 M=1
MM3<1> net273 net173 POS POS PHS W=2.08e-6 L=0.18e-6 M=1
MM3<2> net273 net173 POS POS PHS W=2.08e-6 L=0.18e-6 M=1
MM3<3> net273 net173 POS POS PHS W=2.08e-6 L=0.18e-6 M=1
MM3<4> net273 net173 POS POS PHS W=2.08e-6 L=0.18e-6 M=1
MM3<5> net273 net173 POS POS PHS W=2.08e-6 L=0.18e-6 M=1
MM1<0> net278 net273 POS POS PHS W=2.08e-6 L=0.18e-6 M=1
MM1<1> net278 net273 POS POS PHS W=2.08e-6 L=0.18e-6 M=1
MM1<2> net278 net273 POS POS PHS W=2.08e-6 L=0.18e-6 M=1
MM1<3> net278 net273 POS POS PHS W=2.08e-6 L=0.18e-6 M=1
MM1<4> net278 net273 POS POS PHS W=2.08e-6 L=0.18e-6 M=1
MM1<5> net278 net273 POS POS PHS W=2.08e-6 L=0.18e-6 M=1
MM1<6> net278 net273 POS POS PHS W=2.08e-6 L=0.18e-6 M=1
MM1<7> net278 net273 POS POS PHS W=2.08e-6 L=0.18e-6 M=1
MM1<8> net278 net273 POS POS PHS W=2.08e-6 L=0.18e-6 M=1
MM1<9> net278 net273 POS POS PHS W=2.08e-6 L=0.18e-6 M=1
XI50 net173 net138 NEG POS net131 net139 RESB / FD4HSP_PLL600V3_m18
XI49 net173 NEG NEG POS net301 net225 RESB / FD4HSP_PLL600V3_m18
XI39 CLKINB NEG POS net173 / IVHSX4_PLL600V3_m18
XI38 CLKINB NEG POS net173 / IVHSX4_PLL600V3_m18
XI45 net139 NEG POS LOAD / IVHSX4_PLL600V3_m18
XI46 net139 NEG POS LOAD / IVHSX4_PLL600V3_m18
XI33 net274 net146 net175 net123 NEG POS net335 / ND4HSP_PLL600V3_m18
XI32 net274 net146 net175 NEG POS net150 / ND3HSP_PLL600V3_m18
XI18 net136 LOAD NEG POS net378 / NR2HSP_PLL600V3_m18
XI51 net327 net131 NEG POS net197 / NR2HSP_PLL600V3_m18
XI52 net197 net301 NEG POS net190 / NR2HSP_PLL600V3_m18
XI27 net150 LOAD NEG POS net414 / NR2HSP_PLL600V3_m18
XI31 net335 LOAD NEG POS net336 / NR2HSP_PLL600V3_m18
XI48 net245 F32 NEG POS net327 / NR2HSP_PLL600V3_m18
XI16 D1 F32 NEG POS net143 / NR2HSP_PLL600V3_m18
XI29 D4 F32 NEG POS net142 / NR2HSP_PLL600V3_m18
XI22 D2 F32 NEG POS net303 / NR2HSP_PLL600V3_m18
XI25 D3 F32 NEG POS net149 / NR2HSP_PLL600V3_m18
XI44 net335 net95 NEG POS net138 / NR2HSP_PLL600V3_m18
XI21 net271 LOAD NEG POS net337 / NR2HSP_PLL600V3_m18
XI55 net233 net301 NEG POS DIVOUT2 / NR2HSP_PLL600V3_m18
XI36 net139 Q4 NEG POS net2 / ND2HSP_PLL600V3_m18
XI11 D0 net188 NEG POS net347 / ND2HSP_PLL600V3_m18
XI20 net274 net146 NEG POS net271 / ND2HSP_PLL600V3_m18
XI34 net1 NEG POS net95 / IVHSP_PLL600V3_m18
XI17 net143 NEG POS net355 / IVHSP_PLL600V3_m18
XI30 net142 NEG POS net359 / IVHSP_PLL600V3_m18
XI19 net382 NEG POS net146 / IVHSP_PLL600V3_m18
XI10 net188 NEG POS F32 / IVHSP_PLL600V3_m18
XI15 net370 NEG POS net274 / IVHSP_PLL600V3_m18
XI23 net303 NEG POS net357 / IVHSP_PLL600V3_m18
XI14 Q0 NEG POS net136 / IVHSP_PLL600V3_m18
XI24 net394 NEG POS net175 / IVHSP_PLL600V3_m18
XI37 RESET NEG POS RESB / IVHSP_PLL600V3_m18
XI28 net418 NEG POS net123 / IVHSP_PLL600V3_m18
XI35 net2 NEG POS net1 / IVHSP_PLL600V3_m18
XI47 SYNCEN NEG POS net245 / IVHSP_PLL600V3_m18
XI13 LOAD NEG POS net223 / IVHSP_PLL600V3_m18
XI12 net347 NEG POS net353 / IVHSP_PLL600V3_m18
XI9 FORCE32 NEG POS net188 / IVHSP_PLL600V3_m18
XI26 net149 NEG POS net361 / IVHSP_PLL600V3_m18
.ENDS

************************************************************************
* Library Name: SINT_mkm18
* Cell Name:    PLLFILTSUPV2_PLL600V3_m18
* View Name:    schematic
************************************************************************

.SUBCKT PLLFILTSUPV2_PLL600V3_m18 FILPOS NEG POS
*.PININFO NEG:I POS:I FILPOS:O
DD1 NEG POS DI 1.00e-12
RR5 FILPOS POS 190.9 $SUB=NEG $[R4] $W=2.1e-6 M=1
RR8 FILPOS POS 190.9 $SUB=NEG $[R4] $W=2.1e-6 M=1
RR11 FILPOS POS 190.9 $SUB=NEG $[R4] $W=2.1e-6 M=1
RR10 FILPOS POS 190.9 $SUB=NEG $[R4] $W=2.1e-6 M=1
RR1 FILPOS POS 190.9 $SUB=NEG $[R4] $W=2.1e-6 M=1
RR7 FILPOS POS 190.9 $SUB=NEG $[R4] $W=2.1e-6 M=1
RR6 FILPOS POS 190.9 $SUB=NEG $[R4] $W=2.1e-6 M=1
RR2 FILPOS POS 190.9 $SUB=NEG $[R4] $W=2.1e-6 M=1
RR3 FILPOS POS 190.9 $SUB=NEG $[R4] $W=2.1e-6 M=1
RR0 FILPOS POS 190.9 $SUB=NEG $[R4] $W=2.1e-6 M=1
RR4 FILPOS POS 190.9 $SUB=NEG $[R4] $W=2.1e-6 M=1
RR9 FILPOS POS 190.9 $SUB=NEG $[R4] $W=2.1e-6 M=1
MM0<1> NEG FILPOS NEG NEG NHS W=9.4e-6 L=4.54e-6 M=1
MM0<2> NEG FILPOS NEG NEG NHS W=9.4e-6 L=4.54e-6 M=1
MM0<3> NEG FILPOS NEG NEG NHS W=9.4e-6 L=4.54e-6 M=1
MM0<4> NEG FILPOS NEG NEG NHS W=9.4e-6 L=4.54e-6 M=1
MM0<5> NEG FILPOS NEG NEG NHS W=9.4e-6 L=4.54e-6 M=1
MM0<6> NEG FILPOS NEG NEG NHS W=9.4e-6 L=4.54e-6 M=1
MM0<7> NEG FILPOS NEG NEG NHS W=9.4e-6 L=4.54e-6 M=1
MM0<8> NEG FILPOS NEG NEG NHS W=9.4e-6 L=4.54e-6 M=1
MM0<9> NEG FILPOS NEG NEG NHS W=9.4e-6 L=4.54e-6 M=1
MM0<10> NEG FILPOS NEG NEG NHS W=9.4e-6 L=4.54e-6 M=1
MM0<11> NEG FILPOS NEG NEG NHS W=9.4e-6 L=4.54e-6 M=1
MM0<12> NEG FILPOS NEG NEG NHS W=9.4e-6 L=4.54e-6 M=1
MM0<13> NEG FILPOS NEG NEG NHS W=9.4e-6 L=4.54e-6 M=1
MM0<14> NEG FILPOS NEG NEG NHS W=9.4e-6 L=4.54e-6 M=1
MM0<15> NEG FILPOS NEG NEG NHS W=9.4e-6 L=4.54e-6 M=1
MM0<16> NEG FILPOS NEG NEG NHS W=9.4e-6 L=4.54e-6 M=1
MM0<17> NEG FILPOS NEG NEG NHS W=9.4e-6 L=4.54e-6 M=1
MM0<18> NEG FILPOS NEG NEG NHS W=9.4e-6 L=4.54e-6 M=1
MM0<19> NEG FILPOS NEG NEG NHS W=9.4e-6 L=4.54e-6 M=1
MM0<20> NEG FILPOS NEG NEG NHS W=9.4e-6 L=4.54e-6 M=1
MM0<21> NEG FILPOS NEG NEG NHS W=9.4e-6 L=4.54e-6 M=1
MM0<22> NEG FILPOS NEG NEG NHS W=9.4e-6 L=4.54e-6 M=1
MM0<23> NEG FILPOS NEG NEG NHS W=9.4e-6 L=4.54e-6 M=1
MM0<24> NEG FILPOS NEG NEG NHS W=9.4e-6 L=4.54e-6 M=1
MM0<25> NEG FILPOS NEG NEG NHS W=9.4e-6 L=4.54e-6 M=1
MM0<26> NEG FILPOS NEG NEG NHS W=9.4e-6 L=4.54e-6 M=1
MM0<27> NEG FILPOS NEG NEG NHS W=9.4e-6 L=4.54e-6 M=1
MM0<28> NEG FILPOS NEG NEG NHS W=9.4e-6 L=4.54e-6 M=1
MM0<29> NEG FILPOS NEG NEG NHS W=9.4e-6 L=4.54e-6 M=1
MM0<30> NEG FILPOS NEG NEG NHS W=9.4e-6 L=4.54e-6 M=1
MM0<31> NEG FILPOS NEG NEG NHS W=9.4e-6 L=4.54e-6 M=1
MM0<32> NEG FILPOS NEG NEG NHS W=9.4e-6 L=4.54e-6 M=1
MM0<33> NEG FILPOS NEG NEG NHS W=9.4e-6 L=4.54e-6 M=1
MM0<34> NEG FILPOS NEG NEG NHS W=9.4e-6 L=4.54e-6 M=1
MM0<35> NEG FILPOS NEG NEG NHS W=9.4e-6 L=4.54e-6 M=1
MM0<36> NEG FILPOS NEG NEG NHS W=9.4e-6 L=4.54e-6 M=1
MM0<37> NEG FILPOS NEG NEG NHS W=9.4e-6 L=4.54e-6 M=1
MM0<38> NEG FILPOS NEG NEG NHS W=9.4e-6 L=4.54e-6 M=1
MM0<39> NEG FILPOS NEG NEG NHS W=9.4e-6 L=4.54e-6 M=1
MM0<40> NEG FILPOS NEG NEG NHS W=9.4e-6 L=4.54e-6 M=1
MM0<41> NEG FILPOS NEG NEG NHS W=9.4e-6 L=4.54e-6 M=1
MM0<42> NEG FILPOS NEG NEG NHS W=9.4e-6 L=4.54e-6 M=1
MM0<43> NEG FILPOS NEG NEG NHS W=9.4e-6 L=4.54e-6 M=1
MM0<44> NEG FILPOS NEG NEG NHS W=9.4e-6 L=4.54e-6 M=1
MM0<45> NEG FILPOS NEG NEG NHS W=9.4e-6 L=4.54e-6 M=1
MM0<46> NEG FILPOS NEG NEG NHS W=9.4e-6 L=4.54e-6 M=1
MM0<47> NEG FILPOS NEG NEG NHS W=9.4e-6 L=4.54e-6 M=1
MM0<48> NEG FILPOS NEG NEG NHS W=9.4e-6 L=4.54e-6 M=1
MM0<49> NEG FILPOS NEG NEG NHS W=9.4e-6 L=4.54e-6 M=1
MM0<50> NEG FILPOS NEG NEG NHS W=9.4e-6 L=4.54e-6 M=1
MM0<51> NEG FILPOS NEG NEG NHS W=9.4e-6 L=4.54e-6 M=1
MM0<52> NEG FILPOS NEG NEG NHS W=9.4e-6 L=4.54e-6 M=1
MM0<53> NEG FILPOS NEG NEG NHS W=9.4e-6 L=4.54e-6 M=1
MM0<54> NEG FILPOS NEG NEG NHS W=9.4e-6 L=4.54e-6 M=1
MM0<55> NEG FILPOS NEG NEG NHS W=9.4e-6 L=4.54e-6 M=1
MM0<56> NEG FILPOS NEG NEG NHS W=9.4e-6 L=4.54e-6 M=1
MM0<57> NEG FILPOS NEG NEG NHS W=9.4e-6 L=4.54e-6 M=1
MM0<58> NEG FILPOS NEG NEG NHS W=9.4e-6 L=4.54e-6 M=1
MM0<59> NEG FILPOS NEG NEG NHS W=9.4e-6 L=4.54e-6 M=1
MM0<60> NEG FILPOS NEG NEG NHS W=9.4e-6 L=4.54e-6 M=1
MM0<61> NEG FILPOS NEG NEG NHS W=9.4e-6 L=4.54e-6 M=1
MM0<62> NEG FILPOS NEG NEG NHS W=9.4e-6 L=4.54e-6 M=1
MM0<63> NEG FILPOS NEG NEG NHS W=9.4e-6 L=4.54e-6 M=1
MM0<64> NEG FILPOS NEG NEG NHS W=9.4e-6 L=4.54e-6 M=1
MM0<65> NEG FILPOS NEG NEG NHS W=9.4e-6 L=4.54e-6 M=1
MM0<66> NEG FILPOS NEG NEG NHS W=9.4e-6 L=4.54e-6 M=1
MM0<67> NEG FILPOS NEG NEG NHS W=9.4e-6 L=4.54e-6 M=1
MM0<68> NEG FILPOS NEG NEG NHS W=9.4e-6 L=4.54e-6 M=1
MM0<69> NEG FILPOS NEG NEG NHS W=9.4e-6 L=4.54e-6 M=1
MM0<70> NEG FILPOS NEG NEG NHS W=9.4e-6 L=4.54e-6 M=1
MM0<71> NEG FILPOS NEG NEG NHS W=9.4e-6 L=4.54e-6 M=1
MM0<72> NEG FILPOS NEG NEG NHS W=9.4e-6 L=4.54e-6 M=1
MM0<73> NEG FILPOS NEG NEG NHS W=9.4e-6 L=4.54e-6 M=1
MM0<74> NEG FILPOS NEG NEG NHS W=9.4e-6 L=4.54e-6 M=1
MM0<75> NEG FILPOS NEG NEG NHS W=9.4e-6 L=4.54e-6 M=1
MM0<76> NEG FILPOS NEG NEG NHS W=9.4e-6 L=4.54e-6 M=1
MM0<77> NEG FILPOS NEG NEG NHS W=9.4e-6 L=4.54e-6 M=1
MM0<78> NEG FILPOS NEG NEG NHS W=9.4e-6 L=4.54e-6 M=1
MM0<79> NEG FILPOS NEG NEG NHS W=9.4e-6 L=4.54e-6 M=1
MM0<80> NEG FILPOS NEG NEG NHS W=9.4e-6 L=4.54e-6 M=1
MM0<81> NEG FILPOS NEG NEG NHS W=9.4e-6 L=4.54e-6 M=1
MM0<82> NEG FILPOS NEG NEG NHS W=9.4e-6 L=4.54e-6 M=1
MM0<83> NEG FILPOS NEG NEG NHS W=9.4e-6 L=4.54e-6 M=1
MM0<84> NEG FILPOS NEG NEG NHS W=9.4e-6 L=4.54e-6 M=1
MM0<85> NEG FILPOS NEG NEG NHS W=9.4e-6 L=4.54e-6 M=1
MM0<86> NEG FILPOS NEG NEG NHS W=9.4e-6 L=4.54e-6 M=1
MM0<87> NEG FILPOS NEG NEG NHS W=9.4e-6 L=4.54e-6 M=1
MM0<88> NEG FILPOS NEG NEG NHS W=9.4e-6 L=4.54e-6 M=1
MM0<89> NEG FILPOS NEG NEG NHS W=9.4e-6 L=4.54e-6 M=1
MM0<90> NEG FILPOS NEG NEG NHS W=9.4e-6 L=4.54e-6 M=1
MM0<91> NEG FILPOS NEG NEG NHS W=9.4e-6 L=4.54e-6 M=1
MM0<92> NEG FILPOS NEG NEG NHS W=9.4e-6 L=4.54e-6 M=1
MM0<93> NEG FILPOS NEG NEG NHS W=9.4e-6 L=4.54e-6 M=1
MM0<94> NEG FILPOS NEG NEG NHS W=9.4e-6 L=4.54e-6 M=1
MM0<95> NEG FILPOS NEG NEG NHS W=9.4e-6 L=4.54e-6 M=1
MM0<96> NEG FILPOS NEG NEG NHS W=9.4e-6 L=4.54e-6 M=1
MM0<97> NEG FILPOS NEG NEG NHS W=9.4e-6 L=4.54e-6 M=1
MM0<98> NEG FILPOS NEG NEG NHS W=9.4e-6 L=4.54e-6 M=1
MM0<99> NEG FILPOS NEG NEG NHS W=9.4e-6 L=4.54e-6 M=1
MM0<100> NEG FILPOS NEG NEG NHS W=9.4e-6 L=4.54e-6 M=1
MM0<101> NEG FILPOS NEG NEG NHS W=9.4e-6 L=4.54e-6 M=1
MM0<102> NEG FILPOS NEG NEG NHS W=9.4e-6 L=4.54e-6 M=1
MM0<103> NEG FILPOS NEG NEG NHS W=9.4e-6 L=4.54e-6 M=1
MM0<104> NEG FILPOS NEG NEG NHS W=9.4e-6 L=4.54e-6 M=1
MM0<105> NEG FILPOS NEG NEG NHS W=9.4e-6 L=4.54e-6 M=1
MM0<106> NEG FILPOS NEG NEG NHS W=9.4e-6 L=4.54e-6 M=1
MM0<107> NEG FILPOS NEG NEG NHS W=9.4e-6 L=4.54e-6 M=1
MM0<108> NEG FILPOS NEG NEG NHS W=9.4e-6 L=4.54e-6 M=1
MM0<109> NEG FILPOS NEG NEG NHS W=9.4e-6 L=4.54e-6 M=1
MM0<110> NEG FILPOS NEG NEG NHS W=9.4e-6 L=4.54e-6 M=1
MM0<111> NEG FILPOS NEG NEG NHS W=9.4e-6 L=4.54e-6 M=1
MM0<112> NEG FILPOS NEG NEG NHS W=9.4e-6 L=4.54e-6 M=1
MM0<113> NEG FILPOS NEG NEG NHS W=9.4e-6 L=4.54e-6 M=1
MM0<114> NEG FILPOS NEG NEG NHS W=9.4e-6 L=4.54e-6 M=1
MM0<115> NEG FILPOS NEG NEG NHS W=9.4e-6 L=4.54e-6 M=1
MM0<116> NEG FILPOS NEG NEG NHS W=9.4e-6 L=4.54e-6 M=1
MM0<117> NEG FILPOS NEG NEG NHS W=9.4e-6 L=4.54e-6 M=1
MM0<118> NEG FILPOS NEG NEG NHS W=9.4e-6 L=4.54e-6 M=1
MM0<119> NEG FILPOS NEG NEG NHS W=9.4e-6 L=4.54e-6 M=1
MM0<120> NEG FILPOS NEG NEG NHS W=9.4e-6 L=4.54e-6 M=1
MM0<121> NEG FILPOS NEG NEG NHS W=9.4e-6 L=4.54e-6 M=1
MM0<122> NEG FILPOS NEG NEG NHS W=9.4e-6 L=4.54e-6 M=1
MM0<123> NEG FILPOS NEG NEG NHS W=9.4e-6 L=4.54e-6 M=1
MM0<124> NEG FILPOS NEG NEG NHS W=9.4e-6 L=4.54e-6 M=1
MM0<125> NEG FILPOS NEG NEG NHS W=9.4e-6 L=4.54e-6 M=1
MM0<126> NEG FILPOS NEG NEG NHS W=9.4e-6 L=4.54e-6 M=1
MM0<127> NEG FILPOS NEG NEG NHS W=9.4e-6 L=4.54e-6 M=1
MM0<128> NEG FILPOS NEG NEG NHS W=9.4e-6 L=4.54e-6 M=1
MM0<129> NEG FILPOS NEG NEG NHS W=9.4e-6 L=4.54e-6 M=1
MM0<130> NEG FILPOS NEG NEG NHS W=9.4e-6 L=4.54e-6 M=1
MM0<131> NEG FILPOS NEG NEG NHS W=9.4e-6 L=4.54e-6 M=1
MM0<132> NEG FILPOS NEG NEG NHS W=9.4e-6 L=4.54e-6 M=1
MM0<133> NEG FILPOS NEG NEG NHS W=9.4e-6 L=4.54e-6 M=1
MM0<134> NEG FILPOS NEG NEG NHS W=9.4e-6 L=4.54e-6 M=1
MM0<135> NEG FILPOS NEG NEG NHS W=9.4e-6 L=4.54e-6 M=1
MM0<136> NEG FILPOS NEG NEG NHS W=9.4e-6 L=4.54e-6 M=1
MM0<137> NEG FILPOS NEG NEG NHS W=9.4e-6 L=4.54e-6 M=1
MM0<138> NEG FILPOS NEG NEG NHS W=9.4e-6 L=4.54e-6 M=1
MM0<139> NEG FILPOS NEG NEG NHS W=9.4e-6 L=4.54e-6 M=1
MM0<140> NEG FILPOS NEG NEG NHS W=9.4e-6 L=4.54e-6 M=1
MM0<141> NEG FILPOS NEG NEG NHS W=9.4e-6 L=4.54e-6 M=1
MM0<142> NEG FILPOS NEG NEG NHS W=9.4e-6 L=4.54e-6 M=1
MM0<143> NEG FILPOS NEG NEG NHS W=9.4e-6 L=4.54e-6 M=1
MM0<144> NEG FILPOS NEG NEG NHS W=9.4e-6 L=4.54e-6 M=1
MM0<145> NEG FILPOS NEG NEG NHS W=9.4e-6 L=4.54e-6 M=1
MM0<146> NEG FILPOS NEG NEG NHS W=9.4e-6 L=4.54e-6 M=1
MM0<147> NEG FILPOS NEG NEG NHS W=9.4e-6 L=4.54e-6 M=1
MM0<148> NEG FILPOS NEG NEG NHS W=9.4e-6 L=4.54e-6 M=1
MM0<149> NEG FILPOS NEG NEG NHS W=9.4e-6 L=4.54e-6 M=1
MM0<150> NEG FILPOS NEG NEG NHS W=9.4e-6 L=4.54e-6 M=1
MM0<151> NEG FILPOS NEG NEG NHS W=9.4e-6 L=4.54e-6 M=1
MM0<152> NEG FILPOS NEG NEG NHS W=9.4e-6 L=4.54e-6 M=1
MM0<153> NEG FILPOS NEG NEG NHS W=9.4e-6 L=4.54e-6 M=1
MM0<154> NEG FILPOS NEG NEG NHS W=9.4e-6 L=4.54e-6 M=1
MM0<155> NEG FILPOS NEG NEG NHS W=9.4e-6 L=4.54e-6 M=1
MM0<156> NEG FILPOS NEG NEG NHS W=9.4e-6 L=4.54e-6 M=1
MM0<157> NEG FILPOS NEG NEG NHS W=9.4e-6 L=4.54e-6 M=1
MM0<158> NEG FILPOS NEG NEG NHS W=9.4e-6 L=4.54e-6 M=1
MM0<159> NEG FILPOS NEG NEG NHS W=9.4e-6 L=4.54e-6 M=1
MM0<160> NEG FILPOS NEG NEG NHS W=9.4e-6 L=4.54e-6 M=1
MM0<161> NEG FILPOS NEG NEG NHS W=9.4e-6 L=4.54e-6 M=1
MM0<162> NEG FILPOS NEG NEG NHS W=9.4e-6 L=4.54e-6 M=1
MM0<163> NEG FILPOS NEG NEG NHS W=9.4e-6 L=4.54e-6 M=1
MM0<164> NEG FILPOS NEG NEG NHS W=9.4e-6 L=4.54e-6 M=1
MM0<165> NEG FILPOS NEG NEG NHS W=9.4e-6 L=4.54e-6 M=1
MM0<166> NEG FILPOS NEG NEG NHS W=9.4e-6 L=4.54e-6 M=1
MM0<167> NEG FILPOS NEG NEG NHS W=9.4e-6 L=4.54e-6 M=1
MM0<168> NEG FILPOS NEG NEG NHS W=9.4e-6 L=4.54e-6 M=1
MM0<169> NEG FILPOS NEG NEG NHS W=9.4e-6 L=4.54e-6 M=1
MM0<170> NEG FILPOS NEG NEG NHS W=9.4e-6 L=4.54e-6 M=1